/*--------------------------------*- C++ -*----------------------------------*\
| =========                 |                                                 |
| \\      /  F ield         | OpenFOAM: The Open Source CFD Toolbox           |
|  \\    /   O peration     | Version:  plus                                  |
|   \\  /    A nd           | Web:      www.OpenFOAM.com                      |
|    \\/     M anipulation  |                                                 |
\*---------------------------------------------------------------------------*/
FoamFile
{
    version     2.0;
    format      ascii;
    class       dictionary;
    location    "system";
    object      controlDict;
}
// * * * * * * * * * * * * * * * * * * * * * * * * * * * * * * * * * * * * * //

application     simpleFoam;

startFrom       latestTime;

startTime       0;

stopAt          endTime;

endTime         2000;

deltaT          1;

writeControl    timeStep;

writeInterval   100;

purgeWrite      0;

writeFormat     binary;

writePrecision  10;

writeCompression off;

timeFormat      general;

timePrecision   6;

runTimeModifiable true;

functions
{
    forceCoeffs1
    {
        type            forceCoeffs;
        libs            ("libforces.so");
        writeControl    timeStep;
        writeInterval   10;
        log             true;
        patches         (parachute);
        rho             rhoInf;      // Indicates incompressible.
        rhoInf          1.18;        // Redundant for incompressible (value does not matter).
        liftDir         (1 0 0);
        dragDir         (0 1 0);
        CofR            (0 0 0);
        pitchAxis       (0 0 1);
        magUInf         10;          // Matches 0/U.
        lRef            1.0;         // Parachute radius.
        Aref            0.0436;      // Area of parachute in axisymmetric slice.
    }
}





// ************************************************************************* //
